MODEL        1
REMARK  Name = 
REMARK                            x       y       z     vdW  Elec       q    Type
REMARK                         _______ _______ _______ _____ _____    ______ ____
ROOT
ATOM      1  N   LIG    1        3.371  -6.816   0.603  0.00  0.00    -0.306 N 
ATOM      2  H   LIG    1        4.187  -6.910   1.193  0.00  0.00    +0.149 HD
ATOM      3  C   LIG    1        3.426  -7.257  -0.702  0.00  0.00    +0.219 C 
ATOM      4  O   LIG    1        2.618  -6.869  -1.528  0.00  0.00    -0.275 OA
ENDROOT
BRANCH   1   5
ATOM      5  C   LIG    1        2.284  -5.980   1.106  0.00  0.00    +0.200 C 
BRANCH   5   8
ATOM      6  N   LIG    1        2.304  -4.397  -0.724  0.00  0.00    -0.263 N 
ATOM      7  H   LIG    1        2.215  -5.227  -1.303  0.00  0.00    +0.157 HD
ATOM      8  C   LIG    1        2.370  -4.521   0.645  0.00  0.00    +0.236 C 
ATOM      9  O   LIG    1        2.391  -3.617   1.468  0.00  0.00    -0.274 OA
BRANCH   6  14
ATOM     10  S   LIG    1        1.981  -3.298  -3.037  0.00  0.00    -0.061 S 
ATOM     11  C   LIG    1        2.029  -1.585  -3.122  0.00  0.00    +0.068 A 
ATOM     12  C   LIG    1        2.332  -1.071  -1.879  0.00  0.00    +0.120 A 
ATOM     13  N   LIG    1        2.473  -1.998  -0.870  0.00  0.00    -0.233 NA
ATOM     14  C   LIG    1        2.294  -3.195  -1.360  0.00  0.00    +0.164 A 
ENDBRANCH   6  14
ENDBRANCH   5   8
ENDBRANCH   1   5
BRANCH   3  15
ATOM     15  C   LIG    1        4.494  -8.293  -0.991  0.00  0.00    +0.153 C 
BRANCH  15  16
ATOM     16  C   LIG    1        5.608  -7.898  -1.929  0.00  0.00    +0.080 A 
ATOM     17  C   LIG    1        5.462  -7.717  -3.330  0.00  0.00    +0.011 A 
ATOM     18  C   LIG    1        4.236  -7.667  -4.038  0.00  0.00    +0.010 A 
ATOM     19  C   LIG    1        4.184  -7.626  -5.435  0.00  0.00    +0.001 A 
ATOM     20  C   LIG    1        5.355  -7.580  -6.173  0.00  0.00    +0.001 A 
ATOM     21  C   LIG    1        6.576  -7.532  -5.508  0.00  0.00    +0.014 A 
ATOM     22  C   LIG    1        6.642  -7.607  -4.098  0.00  0.00    +0.047 A 
ATOM     23  C   LIG    1        7.851  -7.597  -3.413  0.00  0.00    +0.240 A 
ATOM     24  N   LIG    1        7.964  -7.741  -2.083  0.00  0.00    -0.111 NA
ATOM     25  N   LIG    1        6.837  -7.915  -1.343  0.00  0.00    -0.150 NA
BRANCH  23  26
ATOM     26  O   LIG    1        9.036  -7.411  -4.064  0.00  0.00    -0.491 OA
ATOM     27  H   LIG    1        9.660  -7.370  -3.318  0.00  0.00    +0.294 HD
ENDBRANCH  23  26
ENDBRANCH  15  16
ENDBRANCH   3  15
TORSDOF 6
ENDMDL
MODEL        2
REMARK  Name = 
REMARK                            x       y       z     vdW  Elec       q    Type
REMARK                         _______ _______ _______ _____ _____    ______ ____
ROOT
ATOM      1  C   LIG    1        3.689   0.831   0.928  0.00  0.00    +0.153 C 
ENDROOT
BRANCH   1   2
ATOM      2  C   LIG    1        4.958   0.186   1.416  0.00  0.00    +0.080 A 
ATOM      3  C   LIG    1        5.050  -0.552   2.618  0.00  0.00    +0.011 A 
ATOM      4  C   LIG    1        3.982  -0.766   3.526  0.00  0.00    +0.010 A 
ATOM      5  C   LIG    1        4.149  -1.532   4.684  0.00  0.00    +0.001 A 
ATOM      6  C   LIG    1        5.387  -2.088   4.978  0.00  0.00    +0.001 A 
ATOM      7  C   LIG    1        6.459  -1.874   4.116  0.00  0.00    +0.014 A 
ATOM      8  C   LIG    1        6.302  -1.115   2.935  0.00  0.00    +0.047 A 
ATOM      9  C   LIG    1        7.343  -0.889   2.041  0.00  0.00    +0.240 A 
ATOM     10  N   LIG    1        7.227  -0.182   0.903  0.00  0.00    -0.111 NA
ATOM     11  N   LIG    1        6.024   0.355   0.586  0.00  0.00    -0.150 NA
BRANCH   9  12
ATOM     12  O   LIG    1        8.594  -1.386   2.264  0.00  0.00    -0.491 OA
ATOM     13  H   LIG    1        9.072  -1.055   1.483  0.00  0.00    +0.294 HD
ENDBRANCH   9  12
ENDBRANCH   1   2
BRANCH   1  15
ATOM     14  O   LIG    1        2.051  -0.889   0.585  0.00  0.00    -0.275 OA
ATOM     15  C   LIG    1        2.864  -0.122   0.089  0.00  0.00    +0.219 C 
ATOM     16  N   LIG    1        3.088  -0.033  -1.271  0.00  0.00    -0.311 N 
ATOM     17  H   LIG    1        3.879   0.503  -1.601  0.00  0.00    +0.149 HD
BRANCH  16  18
ATOM     18  C   LIG    1        2.410  -0.910  -2.199  0.00  0.00    +0.139 C 
BRANCH  18  19
ATOM     19  C   LIG    1        2.307  -0.292  -3.567  0.00  0.00    -0.027 A 
ATOM     20  C   LIG    1        3.451  -0.019  -4.324  0.00  0.00    +0.025 A 
ATOM     21  C   LIG    1        3.296   0.528  -5.588  0.00  0.00    +0.111 A 
ATOM     22  N   LIG    1        2.099   0.818  -6.141  0.00  0.00    -0.263 NA
ATOM     23  C   LIG    1        1.007   0.548  -5.396  0.00  0.00    +0.111 A 
ATOM     24  C   LIG    1        1.058   0.002  -4.122  0.00  0.00    +0.025 A 
ENDBRANCH  18  19
ENDBRANCH  16  18
ENDBRANCH   1  15
TORSDOF 5
ENDMDL
MODEL        3
REMARK  Name = 
REMARK                            x       y       z     vdW  Elec       q    Type
REMARK                         _______ _______ _______ _____ _____    ______ ____
ROOT
ATOM      1  C   LIG    1        3.918   0.025   0.828  0.00  0.00    +0.153 C 
ENDROOT
BRANCH   1   2
ATOM      2  C   LIG    1        4.398  -1.400   0.748  0.00  0.00    +0.080 A 
ATOM      3  C   LIG    1        4.281  -2.341   1.799  0.00  0.00    +0.011 A 
ATOM      4  C   LIG    1        3.700  -2.092   3.068  0.00  0.00    +0.010 A 
ATOM      5  C   LIG    1        3.628  -3.089   4.049  0.00  0.00    +0.001 A 
ATOM      6  C   LIG    1        4.128  -4.360   3.792  0.00  0.00    +0.001 A 
ATOM      7  C   LIG    1        4.715  -4.629   2.560  0.00  0.00    +0.014 A 
ATOM      8  C   LIG    1        4.801  -3.632   1.564  0.00  0.00    +0.047 A 
ATOM      9  C   LIG    1        5.397  -3.864   0.329  0.00  0.00    +0.240 A 
ATOM     10  N   LIG    1        5.484  -2.952  -0.653  0.00  0.00    -0.111 NA
ATOM     11  N   LIG    1        4.972  -1.716  -0.445  0.00  0.00    -0.150 NA
BRANCH   9  12
ATOM     12  O   LIG    1        5.960  -5.068   0.025  0.00  0.00    -0.491 OA
ATOM     13  H   LIG    1        6.304  -4.897  -0.870  0.00  0.00    +0.294 HD
ENDBRANCH   9  12
ENDBRANCH   1   2
BRANCH   1  15
ATOM     15  C   LIG    1        2.497   0.219   0.331  0.00  0.00    +0.219 C 
ATOM     16  N   LIG    1        2.294  -0.114  -0.993  0.00  0.00    -0.311 N 
ATOM     17  H   LIG    1        3.035  -0.595  -1.491  0.00  0.00    +0.149 HD
BRANCH  16  18
ATOM     18  C   LIG    1        0.997  -0.016  -1.630  0.00  0.00    +0.141 C 
BRANCH  18  19
ATOM     19  C   LIG    1        1.021   0.888  -2.830  0.00  0.00    -0.012 A 
ATOM     20  C   LIG    1        0.784   2.263  -2.732  0.00  0.00    +0.008 A 
ATOM     21  C   LIG    1        0.810   3.054  -3.880  0.00  0.00    +0.020 A 
ATOM     22  C   LIG    1        1.081   2.444  -5.094  0.00  0.00    +0.111 A 
ATOM     23  N   LIG    1        1.321   1.123  -5.229  0.00  0.00    -0.263 NA
ATOM     24  C   LIG    1        1.287   0.381  -4.098  0.00  0.00    +0.115 A 
ENDBRANCH  18  19
ENDBRANCH  16  18
ENDBRANCH   1  15
TORSDOF 5
ENDMDL
MODEL        4
REMARK  Name = 1-(2,5-Dimethoxy-4-methyl-benzenesulfonyl)-2-methyl-4,5-dihydro-1H-imidazole
REMARK                            x       y       z     vdW  Elec       q    Type
REMARK                         _______ _______ _______ _____ _____    ______ ____
ROOT
ATOM      1  C   LIG    1        2.955   0.041  -0.115  0.00  0.00    +0.174 A 
ATOM      2  C   LIG    1        3.667   1.247  -0.035  0.00  0.00    +0.080 A 
ATOM      3  C   LIG    1        5.051   1.274  -0.199  0.00  0.00    +0.125 A 
ATOM      4  C   LIG    1        5.736   0.069  -0.414  0.00  0.00    -0.005 A 
ATOM      5  C   LIG    1        7.238   0.031  -0.519  0.00  0.00    +0.047 C 
ATOM      6  C   LIG    1        5.008  -1.131  -0.536  0.00  0.00    +0.054 A 
ATOM      7  C   LIG    1        3.614  -1.156  -0.411  0.00  0.00    +0.149 A 
ENDROOT
BRANCH   1   8
ATOM      8  S   LIG    1        1.190   0.120   0.130  0.00  0.00    +0.137 S 
ATOM      9  O   LIG    1        0.553  -0.946  -0.605  0.00  0.00    -0.130 OA
ATOM     10  O   LIG    1        0.790   1.496  -0.125  0.00  0.00    -0.130 OA
BRANCH   8  11
ATOM     11  N   LIG    1        1.036  -0.181   1.765  0.00  0.00    -0.076 N 
ATOM     12  C   LIG    1        1.313  -1.526   2.266  0.00  0.00    +0.306 C 
ATOM     13  C   LIG    1        1.010  -1.320   3.753  0.00  0.00    +0.335 C 
ATOM     14  N   LIG    1        1.028   0.148   4.011  0.00  0.00    -0.082 NA
ATOM     15  C   LIG    1        1.007   0.716   2.845  0.00  0.00    +0.303 C 
ATOM     16  C   LIG    1        0.951   2.198   2.692  0.00  0.00    +0.146 C 
ENDBRANCH   8  11
ENDBRANCH   1   8
BRANCH   3  17
ATOM     17  O   LIG    1        5.810   2.415  -0.155  0.00  0.00    -0.495 OA
ATOM     18  C   LIG    1        5.111   3.647   0.006  0.00  0.00    +0.277 C 
ENDBRANCH   3  17
BRANCH   7  19
ATOM     19  O   LIG    1        2.901  -2.320  -0.433  0.00  0.00    -0.493 OA
ATOM     20  C   LIG    1        3.312  -3.306  -1.378  0.00  0.00    +0.277 C 
ENDBRANCH   7  19
TORSDOF 4
ENDMDL
MODEL        5
REMARK  Name = 
REMARK                            x       y       z     vdW  Elec       q    Type
REMARK                         _______ _______ _______ _____ _____    ______ ____
ROOT
ATOM      1  C   LIG    1        2.943   2.938   3.566  0.00  0.00    +0.222 A 
ATOM      2  N   LIG    1        2.703   1.813   4.308  0.00  0.00    -0.298 N 
ATOM      3  H   LIG    1        3.379   1.132   4.598  0.00  0.00    +0.171 HD
ATOM      4  C   LIG    1        1.344   1.659   4.336  0.00  0.00    +0.216 A 
ATOM      5  N   LIG    1        0.790   2.681   3.731  0.00  0.00    -0.112 NA
ATOM      6  N   LIG    1        1.797   3.494   3.264  0.00  0.00    -0.112 NA
ENDROOT
BRANCH   1  10
ATOM      7  O   LIG    1        5.706   4.487   2.011  0.00  0.00    -0.276 OA
ATOM      8  C   LIG    1        4.511   4.203   2.222  0.00  0.00    +0.216 C 
ATOM      9  C   LIG    1        3.413   4.764   1.364  0.00  0.00    +0.109 C 
ATOM     10  N   LIG    1        4.219   3.312   3.210  0.00  0.00    -0.255 N 
ATOM     11  H   LIG    1        5.019   2.885   3.651  0.00  0.00    +0.158 HD
ENDBRANCH   1  10
BRANCH   4  12
ATOM     12  N   LIG    1        0.781   0.572   4.900  0.00  0.00    -0.310 N 
ATOM     13  H   LIG    1        1.292  -0.087   5.474  0.00  0.00    +0.149 HD
BRANCH  12  14
ATOM     14  C   LIG    1       -0.480   0.082   4.366  0.00  0.00    +0.139 C 
BRANCH  14  15
ATOM     15  C   LIG    1       -1.234  -0.677   5.432  0.00  0.00    -0.030 A 
ATOM     16  C   LIG    1       -2.160  -0.003   6.241  0.00  0.00    +0.005 A 
ATOM     17  C   LIG    1       -2.887  -0.691   7.213  0.00  0.00    +0.000 A 
ATOM     18  C   LIG    1       -2.688  -2.058   7.396  0.00  0.00    +0.000 A 
ATOM     19  C   LIG    1       -1.762  -2.738   6.606  0.00  0.00    +0.000 A 
ATOM     20  C   LIG    1       -1.034  -2.051   5.630  0.00  0.00    +0.005 A 
ENDBRANCH  14  15
ENDBRANCH  12  14
ENDBRANCH   4  12
TORSDOF 4
ENDMDL
MODEL        6
REMARK  Name = 
REMARK                            x       y       z     vdW  Elec       q    Type
REMARK                         _______ _______ _______ _____ _____    ______ ____
ROOT
ATOM      1  C   LIG    1        1.797   2.325  -2.005  0.00  0.00    +0.098 C 
ATOM      2  C   LIG    1        3.035   1.811  -2.025  0.00  0.00    +0.098 C 
ENDROOT
BRANCH   1   4
ATOM      3  O   LIG    1       -0.136   2.849  -0.715  0.00  0.00    -0.246 OA
ATOM      4  C   LIG    1        1.014   2.439  -0.772  0.00  0.00    +0.330 C 
BRANCH   4   5
ATOM      5  O   LIG    1        1.679   2.037   0.317  0.00  0.00    -0.478 OA
ATOM      6  H   LIG    1        1.047   2.116   1.062  0.00  0.00    +0.295 HD
ENDBRANCH   4   5
ENDBRANCH   1   4
BRANCH   2   7
ATOM      7  C   LIG    1        3.761   1.745  -3.299  0.00  0.00    +0.330 C 
ATOM      8  O   LIG    1        3.233   1.808  -4.400  0.00  0.00    -0.246 OA
BRANCH   7   9
ATOM      9  O   LIG    1        5.090   1.630  -3.115  0.00  0.00    -0.478 OA
ATOM     10  H   LIG    1        5.373   1.622  -2.181  0.00  0.00    +0.295 HD
ENDBRANCH   7   9
ENDBRANCH   2   7
TORSDOF 4
ENDMDL
MODEL        6
REMARK  Name = 
REMARK                            x       y       z     vdW  Elec       q    Type
REMARK                         _______ _______ _______ _____ _____    ______ ____
ROOT
ATOM      1  C   LIG    1        4.100  -0.471   1.379  0.00  0.00    +0.121 A 
ATOM      2  C   LIG    1        5.157   0.437   1.481  0.00  0.00    +0.046 A 
ATOM      3  C   LIG    1        6.232   0.365   0.599  0.00  0.00    +0.004 A 
ATOM      4  C   LIG    1        6.244  -0.618  -0.386  0.00  0.00    +0.001 A 
ATOM      5  C   LIG    1        5.173  -1.516  -0.496  0.00  0.00    +0.008 A 
ATOM      6  C   LIG    1        4.067  -1.452   0.378  0.00  0.00    +0.008 A 
ENDROOT
BRANCH   1   7
ATOM      7  O   LIG    1        3.112  -0.360   2.318  0.00  0.00    -0.506 OA
ATOM      8  H   LIG    1        2.435  -1.035   2.091  0.00  0.00    +0.292 HD
ENDBRANCH   1   7
BRANCH   6   9
ATOM      9  C   LIG    1        2.984  -2.522   0.283  0.00  0.00    +0.122 C 
BRANCH   9  10
ATOM     10  N   LIG    1        1.648  -2.134   0.808  0.00  0.00    -0.304 NA
ATOM     11  C   LIG    1        0.825  -3.335   1.021  0.00  0.00    +0.104 C 
ATOM     12  C   LIG    1        0.930  -1.239  -0.107  0.00  0.00    +0.104 C 
ENDBRANCH   9  10
ENDBRANCH   6   9
TORSDOF 3
ENDMDL
MODEL        7
REMARK  Name = 
REMARK                            x       y       z     vdW  Elec       q    Type
REMARK                         _______ _______ _______ _____ _____    ______ ____
ROOT
ATOM      1  C   LIG    1        1.925  -1.414   0.416  0.00  0.00    +0.141 C 
ATOM      2  C   LIG    1        2.249  -2.709   0.531  0.00  0.00    +0.075 C 
ATOM      3  C   LIG    1        3.604  -3.364   0.595  0.00  0.00    +0.180 C 
ATOM      4  N   LIG    1        3.375  -4.715   0.071  0.00  0.00    -0.280 N 
ATOM      5  C   LIG    1        2.041  -5.063   0.090  0.00  0.00    +0.288 C 
ATOM      6  O   LIG    1        1.530  -6.142  -0.144  0.00  0.00    -0.266 OA
ATOM      7  C   LIG    1        1.273  -3.821   0.520  0.00  0.00    +0.249 C 
ATOM      8  O   LIG    1        0.134  -3.814   0.940  0.00  0.00    -0.282 OA
ENDROOT
BRANCH   1  15
ATOM      9  S   LIG    1        0.082  -0.775  -1.477  0.00  0.00    -0.069 S 
ATOM     10  C   LIG    1       -1.462  -0.277  -0.928  0.00  0.00    +0.076 A 
ATOM     11  C   LIG    1       -2.540   0.054  -1.899  0.00  0.00    +0.073 C 
ATOM     12  N   LIG    1       -1.602  -0.206   0.376  0.00  0.00    -0.249 NA
ATOM     13  C   LIG    1       -0.439  -0.624   1.009  0.00  0.00    +0.056 A 
ATOM     14  C   LIG    1       -0.431  -0.669   2.495  0.00  0.00    +0.067 C 
ATOM     15  C   LIG    1        0.601  -0.972   0.157  0.00  0.00    +0.077 A 
ENDBRANCH   1  15
BRANCH   3  16
ATOM     16  C   LIG    1        4.744  -2.714  -0.115  0.00  0.00    +0.130 A 
ATOM     17  C   LIG    1        5.957  -2.214   0.320  0.00  0.00    +0.047 A 
ATOM     18  C   LIG    1        6.614  -1.703  -0.825  0.00  0.00    +0.041 A 
ATOM     19  C   LIG    1        5.767  -1.926  -1.884  0.00  0.00    +0.195 A 
ATOM     20  O   LIG    1        4.632  -2.543  -1.467  0.00  0.00    -0.466 OA
ENDBRANCH   3  16
BRANCH   1  21
ATOM     21  O   LIG    1        2.884  -0.423   0.439  0.00  0.00    -0.505 OA
ATOM     22  H   LIG    1        2.478   0.395   0.097  0.00  0.00    +0.292 HD
ENDBRANCH   1  21
BRANCH   4  23
ATOM     23  C   LIG    1        4.416  -5.736   0.018  0.00  0.00    +0.110 C 
BRANCH  23  24
ATOM     24  C   LIG    1        4.796  -6.225   1.417  0.00  0.00    +0.034 C 
BRANCH  24  25
ATOM     25  C   LIG    1        5.874  -7.314   1.370  0.00  0.00    +0.085 C 
BRANCH  25  26
ATOM     26  N   LIG    1        6.291  -7.793   2.703  0.00  0.00    -0.308 NA
ATOM     27  C   LIG    1        7.365  -8.783   2.553  0.00  0.00    +0.104 C 
ATOM     28  C   LIG    1        5.183  -8.390   3.455  0.00  0.00    +0.104 C 
ENDBRANCH  25  26
ENDBRANCH  24  25
ENDBRANCH  23  24
ENDBRANCH   4  23
TORSDOF 7
ENDMDL
MODEL        8
REMARK  Name = 
REMARK                            x       y       z     vdW  Elec       q    Type
REMARK                         _______ _______ _______ _____ _____    ______ ____
ROOT
ATOM      1 CL   LIG    1       -0.546   1.640   1.350  0.00  0.00    -0.145 Cl
ATOM      2  H   LIG    1        0.754   1.444   1.763  0.00  0.00    +0.145 HD
ENDROOT
TORSDOF 0
ENDMDL
MODEL        8
REMARK  Name = 
REMARK                            x       y       z     vdW  Elec       q    Type
REMARK                         _______ _______ _______ _____ _____    ______ ____
ROOT
ATOM      1  O   LIG    1        1.568   0.208  -0.307  0.00  0.00    -0.275 OA
ATOM      2  C   LIG    1        2.763  -0.018  -0.189  0.00  0.00    +0.227 C 
ATOM      3  C   LIG    1        3.367  -1.415  -0.138  0.00  0.00    +0.108 C 
ATOM      4  C   LIG    1        4.812  -1.014  -0.026  0.00  0.00    -0.014 A 
ATOM      5  C   LIG    1        5.914  -1.860   0.067  0.00  0.00    +0.006 A 
ATOM      6  C   LIG    1        7.190  -1.290   0.158  0.00  0.00    +0.000 A 
ATOM      7  C   LIG    1        7.340   0.113   0.160  0.00  0.00    +0.002 A 
ATOM      8  C   LIG    1        6.209   0.950   0.077  0.00  0.00    +0.024 A 
ATOM      9  C   LIG    1        4.951   0.348  -0.014  0.00  0.00    +0.040 A 
ATOM     10  N   LIG    1        3.697   0.959  -0.107  0.00  0.00    -0.274 N 
ATOM     11  C   LIG    1        3.453   2.388  -0.104  0.00  0.00    +0.138 C 
ENDROOT
BRANCH   3  12
ATOM     12  C   LIG    1        3.110  -2.223  -1.425  0.00  0.00    +0.032 C 
BRANCH  12  13
ATOM     13  C   LIG    1        3.732  -3.615  -1.329  0.00  0.00    +0.079 C 
BRANCH  13  14
ATOM     14  N   LIG    1        3.478  -4.362  -2.554  0.00  0.00    -0.330 NA
ATOM     15  H   LIG    1        4.014  -5.258  -2.516  0.00  0.00    +0.118 HD
ATOM     16  H   LIG    1        2.460  -4.593  -2.599  0.00  0.00    +0.118 HD
ENDBRANCH  13  14
ENDBRANCH  12  13
ENDBRANCH   3  12
TORSDOF 3
ENDMDL
MODEL        9
REMARK  Name = 
REMARK                            x       y       z     vdW  Elec       q    Type
REMARK                         _______ _______ _______ _____ _____    ______ ____
ROOT
ATOM      1  C   LIG    1        3.143   1.669  -0.346  0.00  0.00    +0.048 A 
ATOM      2  C   LIG    1        4.284   1.063  -0.881  0.00  0.00    +0.026 A 
ATOM      3  C   LIG    1        5.430   1.821  -1.148  0.00  0.00    +0.007 A 
ATOM      4  C   LIG    1        5.466   3.192  -0.868  0.00  0.00    -0.034 A 
ATOM      5  C   LIG    1        4.323   3.798  -0.335  0.00  0.00    +0.007 A 
ATOM      6  C   LIG    1        3.175   3.044  -0.064  0.00  0.00    +0.026 A 
ENDROOT
BRANCH   1  10
ATOM      7  N   LIG    1        0.391  -0.680  -0.028  0.00  0.00    -0.240 NA
ATOM      8  C   LIG    1        0.120   0.236   0.941  0.00  0.00    +0.131 A 
ATOM      9  C   LIG    1        1.054   1.234   0.933  0.00  0.00    +0.112 A 
ATOM     10  N   LIG    1        1.966   0.916  -0.056  0.00  0.00    -0.303 N 
ATOM     11  C   LIG    1        1.480  -0.254  -0.647  0.00  0.00    +0.114 A 
BRANCH  11  12
ATOM     12  C   LIG    1        2.051  -0.921  -1.862  0.00  0.00    +0.071 C 
ATOM     13  C   LIG    1        0.984  -1.574  -2.731  0.00  0.00    +0.012 C 
ENDBRANCH  11  12
ENDBRANCH   1  10
BRANCH   4  14
ATOM     14  C   LIG    1        6.710   3.998  -1.141  0.00  0.00    +0.113 C 
BRANCH  14  15
ATOM     15  N   LIG    1        6.680   4.596  -2.469  0.00  0.00    -0.326 NA
ATOM     16  H   LIG    1        7.579   5.036  -2.654  0.00  0.00    +0.119 HD
ATOM     17  H   LIG    1        6.574   3.859  -3.164  0.00  0.00    +0.119 HD
ENDBRANCH  14  15
ENDBRANCH   4  14
TORSDOF 4
ENDMDL
MODEL       10
REMARK  Name = 1,3,7-Trimethyl-8-[2-(4-methyl-piperidin-1-yl)-ethyl]-1H,8H-imidazo[2,1-f]purine
REMARK                            x       y       z     vdW  Elec       q    Type
REMARK                         _______ _______ _______ _____ _____    ______ ____
ROOT
ATOM      1  O   LIG    1        0.734   0.278   0.072  0.00  0.00    -0.246 OA
ATOM      2  C   LIG    1        1.928  -0.006  -0.031  0.00  0.00    +0.333 A 
ATOM      3  N   LIG    1        2.923   0.976   0.028  0.00  0.00    -0.280 N 
ATOM      4  C   LIG    1        2.568   2.375   0.190  0.00  0.00    +0.155 C 
ATOM      5  C   LIG    1        4.243   0.613  -0.091  0.00  0.00    +0.170 A 
ATOM      6  C   LIG    1        4.604  -0.694  -0.279  0.00  0.00    +0.157 A 
ATOM      7  N   LIG    1        5.952  -0.659  -0.356  0.00  0.00    -0.277 N 
ATOM      8  C   LIG    1        6.331   0.650  -0.200  0.00  0.00    +0.218 A 
ATOM      9  N   LIG    1        7.687   0.670  -0.268  0.00  0.00    -0.313 N 
ATOM     10  C   LIG    1        8.140  -0.659  -0.450  0.00  0.00    +0.035 A 
ATOM     11  C   LIG    1        9.574  -1.029  -0.557  0.00  0.00    +0.065 C 
ATOM     12  C   LIG    1        7.056  -1.475  -0.515  0.00  0.00    +0.116 A 
ATOM     13  C   LIG    1        3.683  -1.769  -0.343  0.00  0.00    +0.283 A 
ATOM     14  O   LIG    1        4.017  -2.934  -0.490  0.00  0.00    -0.265 OA
ATOM     15  N   LIG    1        5.320   1.464  -0.029  0.00  0.00    -0.193 NA
ATOM     16  N   LIG    1        2.354  -1.341  -0.206  0.00  0.00    -0.262 N 
ATOM     17  C   LIG    1        1.349  -2.386  -0.244  0.00  0.00    +0.157 C 
ENDROOT
BRANCH   9  18
ATOM     18  C   LIG    1        8.440   1.864   0.069  0.00  0.00    +0.140 C 
BRANCH  18  19
ATOM     19  C   LIG    1        8.813   1.875   1.568  0.00  0.00    +0.106 C 
BRANCH  19  20
ATOM     20  N   LIG    1        9.572   3.061   2.023  0.00  0.00    -0.301 NA
ATOM     21  C   LIG    1        8.885   4.336   1.769  0.00  0.00    +0.085 C 
ATOM     22  C   LIG    1        7.612   4.516   2.598  0.00  0.00    +0.018 C 
ATOM     23  C   LIG    1        7.877   4.375   4.103  0.00  0.00    -0.012 C 
ATOM     24  C   LIG    1        8.550   5.631   4.666  0.00  0.00    +0.007 C 
ATOM     25  C   LIG    1        8.708   3.116   4.396  0.00  0.00    +0.018 C 
ATOM     26  C   LIG    1        9.911   2.961   3.455  0.00  0.00    +0.085 C 
ENDBRANCH  19  20
ENDBRANCH  18  19
ENDBRANCH   9  18
TORSDOF 3
ENDMDL
MODEL       11
REMARK  Name = 
REMARK                            x       y       z     vdW  Elec       q    Type
REMARK                         _______ _______ _______ _____ _____    ______ ____
ROOT
ATOM      1  C   LIG    1       -0.145  -4.301  -4.505  0.00  0.00    +0.201 A 
ATOM      2  N   LIG    1       -1.469  -4.614  -4.920  0.00  0.00    -0.306 N 
ATOM      3  C   LIG    1       -1.533  -6.028  -4.944  0.00  0.00    +0.150 A 
ATOM      4  C   LIG    1       -2.484  -7.043  -5.259  0.00  0.00    +0.245 A 
ATOM      5  N   LIG    1       -2.327  -8.285  -5.040  0.00  0.00    -0.156 NA
ATOM      6  C   LIG    1       -1.130  -8.742  -4.498  0.00  0.00    +0.353 A 
ATOM      7  O   LIG    1       -0.982  -9.939  -4.301  0.00  0.00    -0.244 OA
ATOM      8  N   LIG    1       -0.122  -7.806  -4.199  0.00  0.00    -0.278 N 
ATOM      9  C   LIG    1        1.122  -8.246  -3.618  0.00  0.00    +0.155 C 
ATOM     10  C   LIG    1       -0.337  -6.441  -4.462  0.00  0.00    +0.170 A 
ATOM     11  N   LIG    1        0.510  -5.426  -4.231  0.00  0.00    -0.196 NA
ENDROOT
BRANCH   1  15
ATOM     12  N   LIG    1        1.583  -0.709  -3.117  0.00  0.00    -0.295 NA
ATOM     13  C   LIG    1        2.521  -1.794  -3.468  0.00  0.00    +0.103 C 
ATOM     14  C   LIG    1        1.946  -3.030  -4.238  0.00  0.00    +0.123 C 
ATOM     15  N   LIG    1        0.457  -3.070  -4.331  0.00  0.00    -0.298 N 
ATOM     16  C   LIG    1       -0.159  -1.788  -4.642  0.00  0.00    +0.123 C 
ATOM     17  C   LIG    1        0.724  -0.557  -4.317  0.00  0.00    +0.103 C 
BRANCH  12  18
ATOM     18  C   LIG    1        0.795  -1.018  -1.899  0.00  0.00    +0.122 C 
BRANCH  18  25
ATOM     19  F   LIG    1        1.273   1.252  -0.195  0.00  0.00    -0.205 F 
ATOM     20  C   LIG    1        1.772   0.070   0.195  0.00  0.00    +0.128 A 
ATOM     21  C   LIG    1        2.444   0.010   1.421  0.00  0.00    +0.038 A 
ATOM     22  C   LIG    1        2.935  -1.207   1.890  0.00  0.00    +0.003 A 
ATOM     23  C   LIG    1        2.737  -2.360   1.135  0.00  0.00    +0.000 A 
ATOM     24  C   LIG    1        2.057  -2.294  -0.089  0.00  0.00    +0.008 A 
ATOM     25  C   LIG    1        1.572  -1.071  -0.590  0.00  0.00    +0.002 A 
ENDBRANCH  18  25
ENDBRANCH  12  18
ENDBRANCH   1  15
BRANCH   4  26
ATOM     26  O   LIG    1       -3.644  -6.598  -5.787  0.00  0.00    -0.491 OA
ATOM     27  H   LIG    1       -4.180  -7.387  -5.958  0.00  0.00    +0.294 HD
ENDBRANCH   4  26
BRANCH   2  28
ATOM     28  C   LIG    1       -2.695  -3.838  -4.871  0.00  0.00    +0.125 C 
BRANCH  28  29
ATOM     29  C   LIG    1       -2.998  -2.570  -5.685  0.00  0.00    +0.024 C 
BRANCH  29  30
ATOM     30  C   LIG    1       -3.006  -2.476  -7.223  0.00  0.00    -0.016 C 
ATOM     31  C   LIG    1       -4.296  -3.019  -7.834  0.00  0.00    +0.007 C 
ATOM     32  C   LIG    1       -1.840  -3.030  -8.037  0.00  0.00    +0.007 C 
ENDBRANCH  29  30
ENDBRANCH  28  29
ENDBRANCH   2  28
TORSDOF 7
ENDMDL
MODEL       12
REMARK  Name = 
REMARK                            x       y       z     vdW  Elec       q    Type
REMARK                         _______ _______ _______ _____ _____    ______ ____
ROOT
ATOM      1  C   LIG    1        4.036   1.811  -2.755  0.00  0.00    +0.140 C 
ENDROOT
BRANCH   1   2
ATOM      2  C   LIG    1        4.175   3.243  -3.343  0.00  0.00    +0.165 C 
ATOM      3  C   LIG    1        3.952   3.310  -4.848  0.00  0.00    -0.014 A 
ATOM      4  C   LIG    1        4.891   2.747  -5.728  0.00  0.00    +0.006 A 
ATOM      5  C   LIG    1        4.706   2.816  -7.111  0.00  0.00    +0.000 A 
ATOM      6  C   LIG    1        3.580   3.445  -7.635  0.00  0.00    +0.000 A 
ATOM      7  C   LIG    1        2.644   4.019  -6.778  0.00  0.00    +0.004 A 
ATOM      8  C   LIG    1        2.825   3.957  -5.388  0.00  0.00    -0.040 A 
ATOM      9  C   LIG    1        1.866   4.675  -4.477  0.00  0.00    +0.063 C 
ATOM     10  C   LIG    1        1.974   4.150  -3.052  0.00  0.00    +0.165 C 
ATOM     11  O   LIG    1        3.334   4.162  -2.611  0.00  0.00    -0.370 OA
ENDBRANCH   1   2
BRANCH   1  14
ATOM     12  O   LIG    1        4.067  -0.515  -1.125  0.00  0.00    -0.276 OA
ATOM     13  C   LIG    1        4.383   0.560  -0.627  0.00  0.00    +0.214 C 
ATOM     14  N   LIG    1        4.433   1.741  -1.344  0.00  0.00    -0.312 N 
ATOM     15  H   LIG    1        4.526   2.614  -0.844  0.00  0.00    +0.149 HD
BRANCH  13  16
ATOM     16  C   LIG    1        4.731   0.701   0.849  0.00  0.00    +0.111 C 
BRANCH  16  17
ATOM     17  C   LIG    1        3.486   1.027   1.681  0.00  0.00    +0.093 C 
BRANCH  17  18
ATOM     18  N   LIG    1        3.749   1.241   3.124  0.00  0.00    -0.308 NA
ATOM     19  C   LIG    1        4.317   0.050   3.764  0.00  0.00    +0.104 C 
ATOM     20  C   LIG    1        2.498   1.606   3.803  0.00  0.00    +0.104 C 
ENDBRANCH  17  18
ENDBRANCH  16  17
ENDBRANCH  13  16
ENDBRANCH   1  14
TORSDOF 5
ENDMDL
MODEL       13
REMARK  Name = 
REMARK                            x       y       z     vdW  Elec       q    Type
REMARK                         _______ _______ _______ _____ _____    ______ ____
ROOT
ATOM      1  S   LIG    1       -0.014  -1.008   2.611  0.00  0.00    -0.092 S 
ATOM      2  C   LIG    1        0.111   0.601   3.167  0.00  0.00    +0.048 A 
ATOM      3  C   LIG    1        0.876   1.375   2.327  0.00  0.00    +0.036 A 
ATOM      4  C   LIG    1        1.371   0.640   1.209  0.00  0.00    +0.083 A 
ATOM      5  N   LIG    1        2.138   1.165   0.223  0.00  0.00    -0.235 NA
ATOM      6  C   LIG    1        2.464   0.290  -0.729  0.00  0.00    +0.224 A 
ATOM      7  N   LIG    1        2.136  -1.009  -0.795  0.00  0.00    -0.220 NA
ATOM      8  C   LIG    1        1.392  -1.555   0.197  0.00  0.00    +0.139 A 
ATOM      9  C   LIG    1        0.979  -0.696   1.233  0.00  0.00    +0.077 A 
ENDROOT
BRANCH   8  10
ATOM     10  N   LIG    1        1.039  -2.916   0.148  0.00  0.00    -0.312 N 
ATOM     11  C   LIG    1        1.878  -3.718   1.064  0.00  0.00    +0.121 C 
ATOM     12  C   LIG    1        1.437  -5.201   1.028  0.00  0.00    +0.100 C 
ATOM     13  N   LIG    1        1.438  -5.789  -0.329  0.00  0.00    -0.313 NA
ATOM     14  H   LIG    1        2.393  -5.755  -0.687  0.00  0.00    +0.122 HD
ATOM     15  C   LIG    1        0.596  -4.943  -1.205  0.00  0.00    +0.100 C 
ATOM     16  C   LIG    1        1.033  -3.460  -1.225  0.00  0.00    +0.121 C 
ENDBRANCH   8  10
TORSDOF 1
ENDMDL
MODEL       14
REMARK  Name = 
REMARK                            x       y       z     vdW  Elec       q    Type
REMARK                         _______ _______ _______ _____ _____    ______ ____
ROOT
ATOM      1  O   LIG    1        2.751  -0.527  -1.195  0.00  0.00    -0.269 OA
ATOM      2  C   LIG    1        2.171   0.053  -0.283  0.00  0.00    +0.256 C 
ATOM      3  N   LIG    1        1.059  -0.471   0.350  0.00  0.00    -0.310 N 
ATOM      4  H   LIG    1        0.665  -0.016   1.166  0.00  0.00    +0.149 HD
ENDROOT
BRANCH   2   5
ATOM      5  C   LIG    1        2.622   1.392   0.231  0.00  0.00    +0.127 C 
ATOM      6  C   LIG    1        3.879   1.821  -0.031  0.00  0.00    +0.094 C 
BRANCH   6   7
ATOM      7  N   LIG    1        4.593   2.979   0.319  0.00  0.00    -0.332 N 
ATOM      8  C   LIG    1        3.974   4.252   0.759  0.00  0.00    +0.120 C 
ATOM      9  C   LIG    1        4.835   4.957   1.828  0.00  0.00    +0.103 C 
ATOM     10  N   LIG    1        6.232   5.220   1.434  0.00  0.00    -0.302 NA
ATOM     11  C   LIG    1        6.316   6.302   0.457  0.00  0.00    +0.105 C 
ATOM     12  C   LIG    1        6.827   3.963   0.928  0.00  0.00    +0.103 C 
ATOM     13  C   LIG    1        5.996   3.191  -0.134  0.00  0.00    +0.120 C 
ENDBRANCH   6   7
BRANCH   5  14
ATOM     14  C   LIG    1        1.686   2.142   0.980  0.00  0.00    +0.106 C 
ATOM     15  N   LIG    1        0.872   2.703   1.597  0.00  0.00    -0.191 NA
ENDBRANCH   5  14
ENDBRANCH   2   5
BRANCH   3  16
ATOM     16  C   LIG    1        0.473  -1.756   0.013  0.00  0.00    +0.109 C 
BRANCH  16  17
ATOM     17  C   LIG    1        1.119  -2.932   0.755  0.00  0.00    +0.054 C 
BRANCH  17  18
ATOM     18  C   LIG    1        1.020  -2.831   2.262  0.00  0.00    -0.046 A 
ATOM     19  C   LIG    1        2.182  -2.798   3.046  0.00  0.00    +0.004 A 
ATOM     20  C   LIG    1        2.098  -2.701   4.437  0.00  0.00    +0.000 A 
ATOM     21  C   LIG    1        0.853  -2.637   5.059  0.00  0.00    +0.000 A 
ATOM     22  C   LIG    1       -0.309  -2.678   4.293  0.00  0.00    +0.000 A 
ATOM     23  C   LIG    1       -0.227  -2.781   2.902  0.00  0.00    +0.004 A 
ENDBRANCH  17  18
ENDBRANCH  16  17
ENDBRANCH   3  16
TORSDOF 6
ENDMDL
MODEL       15
REMARK  Name = 
REMARK                            x       y       z     vdW  Elec       q    Type
REMARK                         _______ _______ _______ _____ _____    ______ ____
ROOT
ATOM      1  C   LIG    1        2.607  -0.974  -1.315  0.00  0.00    +0.140 A 
ATOM      2  C   LIG    1        2.238  -2.325  -1.249  0.00  0.00    +0.143 A 
ATOM      3  C   LIG    1        3.108  -3.341  -1.715  0.00  0.00    +0.046 A 
ATOM      4  C   LIG    1        4.334  -2.929  -2.261  0.00  0.00    +0.082 A 
ATOM      5  C   LIG    1        5.206  -3.880  -2.767  0.00  0.00    +0.078 A 
ATOM      6  C   LIG    1        4.915  -5.250  -2.758  0.00  0.00    +0.164 A 
ATOM      7  C   LIG    1        3.717  -5.682  -2.172  0.00  0.00    +0.162 A 
ATOM      8  N   LIG    1        4.707  -1.644  -2.335  0.00  0.00    -0.212 NA
ATOM      9  C   LIG    1        2.823  -4.725  -1.665  0.00  0.00    +0.063 A 
ATOM     10  C   LIG    1        3.850  -0.720  -1.866  0.00  0.00    +0.229 A 
ENDROOT
BRANCH   1  12
ATOM     11  O   LIG    1        0.618  -0.226  -0.335  0.00  0.00    -0.270 OA
ATOM     12  C   LIG    1        1.697   0.094  -0.820  0.00  0.00    +0.253 C 
ATOM     13  N   LIG    1        2.119   1.399  -0.937  0.00  0.00    -0.314 N 
ATOM     14  H   LIG    1        3.029   1.578  -1.354  0.00  0.00    +0.149 HD
ATOM     15  C   LIG    1        1.320   2.531  -0.546  0.00  0.00    +0.128 C 
ENDBRANCH   1  12
BRANCH   6  16
ATOM     16  O   LIG    1        5.744  -6.186  -3.312  0.00  0.00    -0.491 OA
ATOM     17  C   LIG    1        6.948  -5.767  -3.936  0.00  0.00    +0.277 C 
ENDBRANCH   6  16
BRANCH   7  18
ATOM     18  O   LIG    1        3.266  -6.969  -2.021  0.00  0.00    -0.491 OA
ATOM     19  C   LIG    1        4.109  -8.037  -2.436  0.00  0.00    +0.277 C 
ENDBRANCH   7  18
BRANCH   2  20
ATOM     20  O   LIG    1        1.018  -2.719  -0.743  0.00  0.00    -0.505 OA
ATOM     21  H   LIG    1        0.530  -1.917  -0.443  0.00  0.00    +0.292 HD
ENDBRANCH   2  20
BRANCH  10  22
ATOM     22  O   LIG    1        4.363   0.531  -2.010  0.00  0.00    -0.492 OA
ATOM     23  H   LIG    1        5.225   0.308  -2.414  0.00  0.00    +0.294 HD
ENDBRANCH  10  22
TORSDOF 5
ENDMDL
